REMARK  9 active torsions:
REMARK  status: ('A' for Active; 'I' for Inactive)
REMARK    1  A    between atoms: C_1  and  C_12 
REMARK    2  A    between atoms: C_2  and  O_10 
REMARK    3  A    between atoms: C_8  and  C_21 
REMARK    4  A    between atoms: C_9  and  C_16 
REMARK    5  A    between atoms: C_12  and  N_13 
REMARK    6  A    between atoms: C_16  and  O_17 
REMARK    7  A    between atoms: O_17  and  C_18 
REMARK    8  A    between atoms: C_21  and  S_22 
REMARK    9  A    between atoms: S_22  and  C_23 
ROOT
HETATM    1  C           1       1.565   1.859  -1.124  0.00  0.00     0.018 C 
HETATM    2  C           1       2.699   2.099  -1.832  0.00  0.00     0.092 C 
HETATM    3  C           1       3.614   1.124  -1.990  0.00  0.00     0.047 C 
HETATM    4  C           1       3.429  -0.088  -1.455  0.00  0.00     0.052 C 
HETATM    5  C           1       2.269  -0.324  -0.836  0.00  0.00     0.047 A 
HETATM    6  C           1       1.296   0.597  -0.701  0.00  0.00     0.020 A 
HETATM    7  N           1       1.858  -1.389  -0.290  0.00  0.00    -0.352 N 
HETATM    8  C           1       0.682  -1.326   0.188  0.00  0.00     0.038 A 
HETATM    9  C           1       0.257  -0.074  -0.130  0.00  0.00     0.076 A 
HETATM   10 Br           1       5.238   1.433  -2.927  0.00  0.00    -0.048 Br
HETATM   11  C           1       2.674  -2.622  -0.270  0.00  0.00     0.156 C 
ENDROOT
BRANCH   8  12
HETATM   12  C           1      -0.053  -2.448   0.896  0.00  0.00     0.137 C 
BRANCH  12  13
HETATM   13  S           1      -1.027  -3.396  -0.318  0.00  0.00    -0.124 SA
BRANCH  13  14
HETATM   14  C           1      -1.904  -4.403   0.920  0.00  0.00     0.000 A 
HETATM   15  C           1      -1.435  -5.618   1.245  0.00  0.00     0.018 A 
HETATM   16  C           1      -2.081  -6.359   2.159  0.00  0.00     0.001 A 
HETATM   17  C           1      -3.193  -5.886   2.743  0.00  0.00     0.000 A 
HETATM   18  C           1      -3.661  -4.672   2.415  0.00  0.00     0.001 A 
HETATM   19  C           1      -3.017  -3.928   1.501  0.00  0.00     0.018 A 
ENDBRANCH  13  14
ENDBRANCH  12  13
ENDBRANCH   8  12
BRANCH   9  20
HETATM   20  C           1      -1.031   0.354   0.073  0.00  0.00     0.296 C 
HETATM   21  O           1      -1.851  -0.362   0.612  0.00  0.00    -0.259 OA
BRANCH  20  22
HETATM   22  O           1      -1.505   1.541  -0.412  0.00  0.00    -0.318 OA
BRANCH  22  23
HETATM   23  C           1      -2.884   1.722  -0.602  0.00  0.00     0.174 C 
HETATM   24  C           1      -3.097   3.032  -1.355  0.00  0.00     0.034 C 
ENDBRANCH  22  23
ENDBRANCH  20  22
ENDBRANCH   9  20
BRANCH   1  25
HETATM   25  C           1       0.694   3.059  -0.759  0.00  0.00     0.313 C 
BRANCH  25  26
HETATM   26  N           1       1.453   4.265  -0.427  0.00  0.00     0.084 N 
HETATM   27  C           1       0.562   5.407  -0.272  0.00  0.00     0.309 C 
HETATM   28  C           1       2.270   4.093   0.768  0.00  0.00     0.309 C 
ENDBRANCH  25  26
ENDBRANCH   1  25
BRANCH   2  29
HETATM   29  O           1       2.955   3.323  -2.378  0.00  0.00    -0.359 OA
HETATM   30  H           1       2.168   3.886  -2.353  0.00  0.00     0.218 HD
ENDBRANCH   2  29
TORSDOF 9
